PDEW 1996 1 27 17 48 10, 9.06 126.81 19.0 5.95 5.95 EVENT NAME
event name: B012796B
time shift: 0
half duration: 2.2
latitude: 9.06
longitude: 126.81
depth: 19.0
Mrr: 7.98e+24
Mtt: -4.08e+23
Mpp: -7.57e+24
Mrt: 5.48e+23
Mrp: 7.15e+24
Mtp: -2.11e+23
